   3
Op:   0 step:   0 rot:    0.0000   0.0000   0.0000
H     1.0000   0.0000   0.0000
H     0.0000   1.0000   0.0000
O     0.0000   0.0000   0.0000
   3
Op:   1 step:   1 rot:    0.1745   0.1745   0.1745
H     0.9698   0.1710  -0.1736
H    -0.1413   0.9751   0.1710
O     0.0000   0.0000   0.0000
   3
Op:   1 step:   2 rot:    0.1745   0.1745   0.1745
H     0.8820   0.3571  -0.3076
H    -0.2409   0.9025   0.3571
O     0.0000   0.0000   0.0000
   3
Op:   1 step:   3 rot:    0.1745   0.1745   0.1745
H     0.7438   0.5425  -0.3904
H    -0.2902   0.7883   0.5425
O     0.0000   0.0000   0.0000
   3
Op:   1 step:   4 rot:    0.1745   0.1745   0.1745
H     0.5672   0.7114  -0.4150
H    -0.2852   0.6424   0.7114
O     0.0000   0.0000   0.0000
   3
Op:   1 step:   5 rot:    0.1745   0.1745   0.1745
H     0.3672   0.8493  -0.3793
H    -0.2261   0.4771   0.8493
O     0.0000   0.0000   0.0000
   3
Op:   1 step:   6 rot:    0.1745   0.1745   0.1745
H     0.1608   0.9445  -0.2864
H    -0.1180   0.3065   0.9445
O     0.0000   0.0000   0.0000
   3
Op:   1 step:   7 rot:    0.1745   0.1745   0.1745
H    -0.0344   0.9890  -0.1442
H     0.0298   0.1452   0.9890
O     0.0000   0.0000   0.0000
   3
Op:   1 step:   8 rot:    0.1745   0.1745   0.1745
H    -0.2018   0.9788   0.0353
H     0.2047   0.0069   0.9788
O     0.0000   0.0000   0.0000
   3
Op:   1 step:   9 rot:    0.1745   0.1745   0.1745
H    -0.3270   0.9149   0.2366
H     0.3919  -0.0966   0.9149
O     0.0000   0.0000   0.0000
   3
Op:   2 step:   1 rot:    0.0000   0.0873   0.1396
H    -0.4295   0.8635   0.2642
H     0.4790  -0.0302   0.8773
O     0.0000   0.0000   0.0000
   3
Op:   2 step:   2 rot:    0.0000   0.0873   0.1396
H    -0.5211   0.7988   0.3007
H     0.5525   0.0472   0.8322
O     0.0000   0.0000   0.0000
   3
Op:   2 step:   3 rot:    0.0000   0.0873   0.1396
H    -0.5993   0.7224   0.3449
H     0.6103   0.1334   0.7809
O     0.0000   0.0000   0.0000
   3
Op:   2 step:   4 rot:    0.0000   0.0873   0.1396
H    -0.6619   0.6365   0.3959
H     0.6509   0.2262   0.7247
O     0.0000   0.0000   0.0000
   3
Op:   2 step:   5 rot:    0.0000   0.0873   0.1396
H    -0.7074   0.5433   0.4520
H     0.6732   0.3230   0.6652
O     0.0000   0.0000   0.0000
   3
Op:   2 step:   6 rot:    0.0000   0.0873   0.1396
H    -0.7345   0.4455   0.5120
H     0.6765   0.4213   0.6040
O     0.0000   0.0000   0.0000
   3
Op:   2 step:   7 rot:    0.0000   0.0873   0.1396
H    -0.7424   0.3455   0.5740
H     0.6609   0.5183   0.5428
O     0.0000   0.0000   0.0000
   3
Op:   2 step:   8 rot:    0.0000   0.0873   0.1396
H    -0.7309   0.2462   0.6366
H     0.6267   0.6115   0.4831
O     0.0000   0.0000   0.0000
   3
Op:   2 step:   9 rot:    0.0000   0.0873   0.1396
H    -0.7003   0.1502   0.6978
H     0.5748   0.6983   0.4266
O     0.0000   0.0000   0.0000
   3
Op:   2 step:  10 rot:    0.0000   0.0873   0.1396
H    -0.6516   0.0601   0.7562
H     0.5067   0.7763   0.3749
O     0.0000   0.0000   0.0000
   3
Op:   3 step:   1 rot:    0.0698   0.1222   0.1396
H    -0.5499  -0.0700   0.8323
H     0.4456   0.8183   0.3632
O     0.0000   0.0000   0.0000
   3
Op:   3 step:   2 rot:    0.0698   0.1222   0.1396
H    -0.4230  -0.1886   0.8863
H     0.3785   0.8519   0.3620
O     0.0000   0.0000   0.0000
   3
Op:   3 step:   3 rot:    0.0698   0.1222   0.1396
H    -0.2759  -0.2912   0.9160
H     0.3080   0.8760   0.3713
O     0.0000   0.0000   0.0000
   3
Op:   3 step:   4 rot:    0.0698   0.1222   0.1396
H    -0.1140  -0.3739   0.9204
H     0.2368   0.8895   0.3907
O     0.0000   0.0000   0.0000
   3
Op:   3 step:   5 rot:    0.0698   0.1222   0.1396
H     0.0564  -0.4336   0.8993
H     0.1676   0.8921   0.4196
O     0.0000   0.0000   0.0000
   3
Op:   3 step:   6 rot:    0.0698   0.1222   0.1396
H     0.2290  -0.4679   0.8536
H     0.1029   0.8836   0.4568
O     0.0000   0.0000   0.0000
   3
Op:   3 step:   7 rot:    0.0698   0.1222   0.1396
H     0.3972  -0.4757   0.7848
H     0.0454   0.8643   0.5009
O     0.0000   0.0000   0.0000
   3
Op:   3 step:   8 rot:    0.0698   0.1222   0.1396
H     0.5545  -0.4565   0.6957
H    -0.0030   0.8350   0.5503
O     0.0000   0.0000   0.0000
   3
Op:   3 step:   9 rot:    0.0698   0.1222   0.1396
H     0.6951  -0.4112   0.5897
H    -0.0402   0.7967   0.6030
O     0.0000   0.0000   0.0000
   3
Op:   3 step:  10 rot:    0.0698   0.1222   0.1396
H     0.8135  -0.3415   0.4707
H    -0.0650   0.7510   0.6571
O     0.0000   0.0000   0.0000
   3
Op:   3 step:  11 rot:    0.0698   0.1222   0.1396
H     0.9054  -0.2499   0.3433
H    -0.0763   0.6995   0.7106
O     0.0000   0.0000   0.0000
   3
Op:   3 step:  12 rot:    0.0698   0.1222   0.1396
H     0.9671  -0.1400   0.2122
H    -0.0738   0.6442   0.7613
O     0.0000   0.0000   0.0000
   3
Op:   3 step:  13 rot:    0.0698   0.1222   0.1396
H     0.9965  -0.0159   0.0826
H    -0.0575   0.5873   0.8074
O     0.0000   0.0000   0.0000
   3
Op:   3 step:  14 rot:    0.0698   0.1222   0.1396
H     0.9922   0.1176  -0.0408
H    -0.0281   0.5308   0.8471
O     0.0000   0.0000   0.0000
   3
Op:   3 step:  15 rot:    0.0698   0.1222   0.1396
H     0.9546   0.2555  -0.1532
H     0.0134   0.4769   0.8789
O     0.0000   0.0000   0.0000
   3
Op:   3 step:  16 rot:    0.0698   0.1222   0.1396
H     0.8850   0.3925  -0.2503
H     0.0653   0.4277   0.9016
O     0.0000   0.0000   0.0000
   3
Op:   3 step:  17 rot:    0.0698   0.1222   0.1396
H     0.7861   0.5235  -0.3285
H     0.1257   0.3850   0.9143
O     0.0000   0.0000   0.0000
   3
Op:   3 step:  18 rot:    0.0698   0.1222   0.1396
H     0.6616   0.6435  -0.3848
H     0.1923   0.3504   0.9166
O     0.0000   0.0000   0.0000
   3
Op:   3 step:  19 rot:    0.0698   0.1222   0.1396
H     0.5163   0.7479  -0.4171
H     0.2626   0.3253   0.9084
O     0.0000   0.0000   0.0000
   3
Op:   3 step:  20 rot:    0.0698   0.1222   0.1396
H     0.3557   0.8328  -0.4241
H     0.3338   0.3107   0.8900
O     0.0000   0.0000   0.0000
